complex-3
 OpenBabel05052201203D

 77 84  0  0  0  0  0  0  0  0999 V2000
   -1.7545   -0.7888    0.5987 C   0  0  1  0  0  0  0  0  0  0  0  0
   -3.4942   -2.2132    0.8771 C   0  0  2  0  0  0  0  0  0  0  0  0
   -3.8324   -1.0431    1.4724 C   0  0  2  0  0  0  0  0  0  0  0  0
   -4.2434   -3.5105    0.8805 C   0  0  0  0  0  0  0  0  0  0  0  0
   -3.6777   -4.2552    1.4386 H   0  0  0  0  0  0  0  0  0  0  0  0
   -4.3810   -3.8529   -0.1441 H   0  0  0  0  0  0  0  0  0  0  0  0
   -5.2159   -3.3677    1.3492 H   0  0  0  0  0  0  0  0  0  0  0  0
   -5.1125   -0.6938    2.1673 C   0  0  0  0  0  0  0  0  0  0  0  0
   -5.7640   -0.1559    1.4802 H   0  0  0  0  0  0  0  0  0  0  0  0
   -4.8967   -0.0656    3.0303 H   0  0  0  0  0  0  0  0  0  0  0  0
   -5.6072   -1.6057    2.4984 H   0  0  0  0  0  0  0  0  0  0  0  0
   -2.5678    1.1844    1.8425 C   0  0  0  0  0  0  0  0  0  0  0  0
   -1.5911    1.5131    1.4904 H   0  0  0  0  0  0  0  0  0  0  0  0
   -3.5568    2.1729    1.2732 C   0  0  0  0  0  0  0  0  0  0  0  0
   -3.6404    2.0246    0.1976 H   0  0  0  0  0  0  0  0  0  0  0  0
   -3.2147    3.1869    1.4749 H   0  0  0  0  0  0  0  0  0  0  0  0
   -4.5302    2.0192    1.7367 H   0  0  0  0  0  0  0  0  0  0  0  0
   -2.4759    1.1868    3.3523 C   0  0  0  0  0  0  0  0  0  0  0  0
   -3.4186    0.8405    3.7734 H   0  0  0  0  0  0  0  0  0  0  0  0
   -2.2725    2.1976    3.7028 H   0  0  0  0  0  0  0  0  0  0  0  0
   -1.6713    0.5250    3.6695 H   0  0  0  0  0  0  0  0  0  0  0  0
   -1.4210   -2.9878   -0.4470 C   0  0  0  0  0  0  0  0  0  0  0  0
   -0.4943   -2.4677   -0.6847 H   0  0  0  0  0  0  0  0  0  0  0  0
   -2.0932   -3.2397   -1.7667 C   0  0  0  0  0  0  0  0  0  0  0  0
   -2.9989   -3.8231   -1.6075 H   0  0  0  0  0  0  0  0  0  0  0  0
   -1.4176   -3.7895   -2.4202 H   0  0  0  0  0  0  0  0  0  0  0  0
   -2.3515   -2.2886   -2.2300 H   0  0  0  0  0  0  0  0  0  0  0  0
   -1.0071   -4.2317    0.2965 C   0  0  0  0  0  0  0  0  0  0  0  0
   -0.7101   -3.9663    1.3101 H   0  0  0  0  0  0  0  0  0  0  0  0
   -0.1692   -4.7008   -0.2172 H   0  0  0  0  0  0  0  0  0  0  0  0
   -1.8443   -4.9269    0.3350 H   0  0  0  0  0  0  0  0  0  0  0  0
   -0.8687    0.7176   -1.7882 C   0  0  0  0  0  0  0  0  0  0  0  0
   -1.7994    0.4811   -1.8097 H   0  0  0  0  0  0  0  0  0  0  0  0
   -0.4215    0.3255   -2.5419 H   0  0  0  0  0  0  0  0  0  0  0  0
   -0.7812    1.6727   -1.8255 H   0  0  0  0  0  0  0  0  0  0  0  0
   -1.1964    0.8411   -2.2475 I   0  0  0  0  0  0  0  0  0  0  0  0
   -2.7473   -0.1865    1.3004 N   0  0  0  0  0  0  0  0  0  0  0  0
   -2.2135   -2.0398    0.3622 N   0  0  0  0  0  0  0  0  0  0  0  0
    0.0000    0.0000    0.0000 Pt  0  0  0  0  0  0  0  0  0  0  0  0
    1.7545    0.7888   -0.5987 C   0  0  2  0  0  0  0  0  0  0  0  0
    3.4942    2.2132   -0.8771 C   0  0  1  0  0  0  0  0  0  0  0  0
    3.8324    1.0431   -1.4724 C   0  0  1  0  0  0  0  0  0  0  0  0
    4.2434    3.5105   -0.8805 C   0  0  0  0  0  0  0  0  0  0  0  0
    3.6777    4.2552   -1.4386 H   0  0  0  0  0  0  0  0  0  0  0  0
    4.3810    3.8529    0.1441 H   0  0  0  0  0  0  0  0  0  0  0  0
    5.2159    3.3677   -1.3492 H   0  0  0  0  0  0  0  0  0  0  0  0
    5.1125    0.6938   -2.1673 C   0  0  0  0  0  0  0  0  0  0  0  0
    5.7640    0.1559   -1.4802 H   0  0  0  0  0  0  0  0  0  0  0  0
    4.8967    0.0656   -3.0303 H   0  0  0  0  0  0  0  0  0  0  0  0
    5.6072    1.6057   -2.4984 H   0  0  0  0  0  0  0  0  0  0  0  0
    2.5678   -1.1844   -1.8425 C   0  0  0  0  0  0  0  0  0  0  0  0
    1.5911   -1.5131   -1.4904 H   0  0  0  0  0  0  0  0  0  0  0  0
    3.5568   -2.1729   -1.2732 C   0  0  0  0  0  0  0  0  0  0  0  0
    3.6404   -2.0246   -0.1976 H   0  0  0  0  0  0  0  0  0  0  0  0
    3.2147   -3.1869   -1.4749 H   0  0  0  0  0  0  0  0  0  0  0  0
    4.5302   -2.0192   -1.7367 H   0  0  0  0  0  0  0  0  0  0  0  0
    2.4759   -1.1868   -3.3523 C   0  0  0  0  0  0  0  0  0  0  0  0
    3.4186   -0.8405   -3.7734 H   0  0  0  0  0  0  0  0  0  0  0  0
    2.2725   -2.1976   -3.7028 H   0  0  0  0  0  0  0  0  0  0  0  0
    1.6713   -0.5250   -3.6695 H   0  0  0  0  0  0  0  0  0  0  0  0
    1.4210    2.9878    0.4470 C   0  0  0  0  0  0  0  0  0  0  0  0
    0.4943    2.4677    0.6847 H   0  0  0  0  0  0  0  0  0  0  0  0
    2.0932    3.2397    1.7667 C   0  0  0  0  0  0  0  0  0  0  0  0
    2.9989    3.8231    1.6075 H   0  0  0  0  0  0  0  0  0  0  0  0
    1.4176    3.7895    2.4202 H   0  0  0  0  0  0  0  0  0  0  0  0
    2.3515    2.2886    2.2300 H   0  0  0  0  0  0  0  0  0  0  0  0
    1.0071    4.2317   -0.2965 C   0  0  0  0  0  0  0  0  0  0  0  0
    0.7101    3.9663   -1.3101 H   0  0  0  0  0  0  0  0  0  0  0  0
    0.1692    4.7008    0.2172 H   0  0  0  0  0  0  0  0  0  0  0  0
    1.8443    4.9269   -0.3350 H   0  0  0  0  0  0  0  0  0  0  0  0
    0.8687   -0.7176    1.7882 C   0  0  0  0  0  0  0  0  0  0  0  0
    1.7994   -0.4811    1.8097 H   0  0  0  0  0  0  0  0  0  0  0  0
    0.4215   -0.3255    2.5419 H   0  0  0  0  0  0  0  0  0  0  0  0
    0.7812   -1.6727    1.8255 H   0  0  0  0  0  0  0  0  0  0  0  0
    1.1964   -0.8411    2.2475 I   0  0  0  0  0  0  0  0  0  0  0  0
    2.7473    0.1865   -1.3004 N   0  0  0  0  0  0  0  0  0  0  0  0
    2.2135    2.0398   -0.3622 N   0  0  0  0  0  0  0  0  0  0  0  0
  1 37  1  0  0  0  0
  1 39  1  6  0  0  0
  2  3  1  0  0  0  0
  2  4  1  1  0  0  0
  2 38  1  0  0  0  0
  3  8  1  6  0  0  0
  5  4  1  0  0  0  0
  6  4  1  0  0  0  0
  7  4  1  0  0  0  0
  8  9  1  0  0  0  0
 10  8  1  0  0  0  0
 11  8  1  0  0  0  0
 12 13  1  0  0  0  0
 12 37  1  0  0  0  0
 14 12  1  0  0  0  0
 15 14  1  0  0  0  0
 16 14  1  0  0  0  0
 17 14  1  0  0  0  0
 18 12  1  0  0  0  0
 19 18  1  0  0  0  0
 20 18  1  0  0  0  0
 21 18  1  0  0  0  0
 22 23  1  0  0  0  0
 22 38  1  0  0  0  0
 24 22  1  0  0  0  0
 25 24  1  0  0  0  0
 26 24  1  0  0  0  0
 27 24  1  0  0  0  0
 28 22  1  0  0  0  0
 29 28  1  0  0  0  0
 30 28  1  0  0  0  0
 31 28  1  0  0  0  0
 32 33  1  0  0  0  0
 33 36  1  0  0  0  0
 34 32  1  0  0  0  0
 34 36  1  0  0  0  0
 35 32  1  0  0  0  0
 35 36  1  0  0  0  0
 36 32  1  0  0  0  0
 36 39  1  0  0  0  0
 37  3  1  0  0  0  0
 38  1  1  0  0  0  0
 40 39  1  1  0  0  0
 41 42  1  0  0  0  0
 41 43  1  6  0  0  0
 41 77  1  0  0  0  0
 42 47  1  1  0  0  0
 42 76  1  0  0  0  0
 44 43  1  0  0  0  0
 45 43  1  0  0  0  0
 46 43  1  0  0  0  0
 47 48  1  0  0  0  0
 49 47  1  0  0  0  0
 50 47  1  0  0  0  0
 51 52  1  0  0  0  0
 51 76  1  0  0  0  0
 53 51  1  0  0  0  0
 54 53  1  0  0  0  0
 55 53  1  0  0  0  0
 56 53  1  0  0  0  0
 57 51  1  0  0  0  0
 58 57  1  0  0  0  0
 59 57  1  0  0  0  0
 60 57  1  0  0  0  0
 61 62  1  0  0  0  0
 61 77  1  0  0  0  0
 63 61  1  0  0  0  0
 64 63  1  0  0  0  0
 65 63  1  0  0  0  0
 66 63  1  0  0  0  0
 67 61  1  0  0  0  0
 68 67  1  0  0  0  0
 69 67  1  0  0  0  0
 70 67  1  0  0  0  0
 71 72  1  0  0  0  0
 71 75  1  0  0  0  0
 72 75  1  0  0  0  0
 73 71  1  0  0  0  0
 73 75  1  0  0  0  0
 74 71  1  0  0  0  0
 74 75  1  0  0  0  0
 75 39  1  0  0  0  0
 76 40  1  0  0  0  0
 77 40  1  0  0  0  0
M  END
$$$$
